/*--------------------------------*- C++ -*----------------------------------*\
| =========                 |                                                 |
| \\      /  F ield         | OpenFOAM: The Open Source CFD Toolbox           |
|  \\    /   O peration     | Version:  2412                                  |
|   \\  /    A nd           | Website:  www.openfoam.com                      |
|    \\/     M anipulation  |                                                 |
\*---------------------------------------------------------------------------*/
FoamFile
{
    version     2.0;
    format      ascii;
    arch        "LSB;label=32;scalar=64";
    class       volScalarField;
    location    "0";
    object      e;
}
// * * * * * * * * * * * * * * * * * * * * * * * * * * * * * * * * * * * * * //

dimensions      [0 2 -2 0 0 0 0];

internalField   uniform 718;

boundaryField
{
    Side
    {
        type            empty;
    }
    Airfoil
    {
        type            zeroGradient;
    }
    Inlet
    {
        type            inletOutlet;
        inletValue      uniform 718;
        value           uniform 718;
    }
    FreeStream
    {
        type            inletOutlet;
        inletValue      uniform 718;
        value           uniform 718;
    }
    Outlet
    {
        type            zeroGradient;
    }
}


// ************************************************************************* //
